APR(A-201)
  -OEChem-04082016163D

 57 60  0     1  0  0  0  0  0999 V2000
    5.6550   -7.3730  -15.8100 C   0  0  0  0  0  0  0  0  0  0  0  0
    6.0360   -6.7190  -17.8750 C   0  0  0  0  0  0  0  0  0  0  0  0
    6.4470   -7.9740  -18.2690 C   0  0  0  0  0  0  0  0  0  0  0  0
    6.4360   -8.9850  -17.2880 C   0  0  0  0  0  0  0  0  0  0  0  0
    6.5700   -6.7240  -20.0110 C   0  0  0  0  0  0  0  0  0  0  0  0
    5.7050   -4.5370  -19.0050 C   0  0  2  0  0  0  0  0  0  0  0  0
    2.2560   -8.6240  -27.0190 C   0  0  2  0  0  0  0  0  0  0  0  0
    6.2060   -3.6570  -20.1420 C   0  0  2  0  0  0  0  0  0  0  0  0
    0.7510   -8.8890  -27.1300 C   0  0  2  0  0  0  0  0  0  0  0  0
    6.0070   -8.6420  -16.0460 N   0  0  0  0  0  0  0  0  0  0  0  0
    5.6270   -6.3460  -16.6510 N   0  0  0  0  0  0  0  0  0  0  0  0
    6.7670  -10.2550  -17.5200 N   0  0  0  0  0  0  0  0  0  0  0  0
    6.7850   -7.9610  -19.6200 N   0  0  0  0  0  0  0  0  0  0  0  0
    6.1370   -5.9180  -18.9770 N   0  0  0  0  0  0  0  0  0  0  0  0
    3.2480   -6.6850  -22.4570 O   0  0  0  0  0  0  0  0  0  0  0  0
   -0.0890   -3.6240  -24.3370 O   0  5  0  0  0  0  0  0  0  0  0  0
    2.8390   -9.2940  -25.9640 O   0  0  0  0  0  0  0  0  0  0  0  0
    7.4910   -3.1390  -19.8640 O   0  0  0  0  0  0  0  0  0  0  0  0
    4.3270   -5.2940  -24.3070 O   0  5  0  0  0  0  0  0  0  0  0  0
    2.2610   -2.6730  -24.7420 O   0  0  0  0  0  0  0  0  0  0  0  0
    0.3910  -10.1190  -27.7240 O   0  0  0  0  0  0  0  0  0  0  0  0
    5.3290   -1.5980  -19.2000 O   0  0  0  0  0  0  0  0  0  0  0  0
    1.9430   -4.8750  -23.5770 O   0  0  0  0  0  0  0  0  0  0  0  0
    3.3980   -5.3740  -23.1440 P   0  0  1  0  0  0  0  0  0  0  0  0
    1.3520   -3.8440  -24.6430 P   0  0  1  0  0  0  0  0  0  0  0  0
    5.1060   -2.5920  -20.1920 C   0  0  2  0  0  0  0  0  0  0  0  0
    0.4730   -7.8800  -29.3370 O   0  0  0  0  0  0  0  0  0  0  0  0
    0.2780   -7.6910  -27.9400 C   0  0  2  0  0  0  0  0  0  0  0  0
    4.3030   -4.5740  -19.1400 O   0  0  0  0  0  0  0  0  0  0  0  0
    3.8410   -3.3910  -19.8400 C   0  0  2  0  0  0  0  0  0  0  0  0
    2.3630   -7.2190  -26.8470 O   0  0  0  0  0  0  0  0  0  0  0  0
    1.1890   -6.5790  -27.4050 C   0  0  2  0  0  0  0  0  0  0  0  0
    3.8450   -4.2610  -22.0730 O   0  0  0  0  0  0  0  0  0  0  0  0
    2.9800   -3.8350  -20.9990 C   0  0  0  0  0  0  0  0  0  0  0  0
    1.5160   -4.6730  -25.9960 O   0  0  0  0  0  0  0  0  0  0  0  0
    0.5780   -5.7220  -26.3270 C   0  0  0  0  0  0  0  0  0  0  0  0
    5.3520   -7.1540  -14.7970 H   0  0  0  0  0  0  0  0  0  0  0  0
    6.7150   -6.3780  -21.0240 H   0  0  0  0  0  0  0  0  0  0  0  0
    2.3520   -2.9970  -21.3380 H   0  0  0  0  0  0  0  0  0  0  0  0
    2.3380   -4.6710  -20.6860 H   0  0  0  0  0  0  0  0  0  0  0  0
    5.9740   -4.0550  -18.0530 H   0  0  0  0  0  0  0  0  0  0  0  0
    2.7280   -8.9190  -27.9680 H   0  0  0  0  0  0  0  0  0  0  0  0
    2.8654   -8.7256  -25.2030 H   0  0  0  0  0  0  0  0  0  0  0  0
    6.2040   -4.2310  -21.0810 H   0  0  0  0  0  0  0  0  0  0  0  0
    7.8382   -2.7167  -20.6415 H   0  0  0  0  0  0  0  0  0  0  0  0
    0.3150   -8.8200  -26.1230 H   0  0  0  0  0  0  0  0  0  0  0  0
   -0.3610   -5.2800  -26.6910 H   0  0  0  0  0  0  0  0  0  0  0  0
    0.6646  -10.1243  -28.6344 H   0  0  0  0  0  0  0  0  0  0  0  0
    0.3740   -6.3340  -25.4360 H   0  0  0  0  0  0  0  0  0  0  0  0
    5.0250   -2.1640  -21.2020 H   0  0  0  0  0  0  0  0  0  0  0  0
    6.2608   -1.5199  -19.0332 H   0  0  0  0  0  0  0  0  0  0  0  0
   -0.7720   -7.4640  -27.7040 H   0  0  0  0  0  0  0  0  0  0  0  0
    1.4032   -7.8907  -29.5287 H   0  0  0  0  0  0  0  0  0  0  0  0
    3.2270   -2.7820  -19.1610 H   0  0  0  0  0  0  0  0  0  0  0  0
    1.4840   -5.9350  -28.2460 H   0  0  0  0  0  0  0  0  0  0  0  0
    6.6380  -10.7910  -16.6860 H   0  0  0  0  0  0  0  0  0  0  0  0
    7.0617  -10.3547  -18.4701 H   0  0  0  0  0  0  0  0  0  0  0  0
  1 10  2  0  0  0  0
  4 10  1  0  0  0  0
  1 11  1  0  0  0  0
  1 37  1  0  0  0  0
  2 11  2  0  0  0  0
  2  3  1  0  0  0  0
  2 14  1  0  0  0  0
  3  4  2  0  0  0  0
  3 13  1  0  0  0  0
  4 12  1  0  0  0  0
 12 56  1  0  0  0  0
 12 57  1  0  0  0  0
  5 13  2  0  0  0  0
  5 14  1  0  0  0  0
  5 38  1  0  0  0  0
  6 14  1  0  0  0  0
 15 24  2  0  0  0  0
 19 24  1  0  0  0  0
 23 24  1  0  0  0  0
 24 33  1  0  0  0  0
 16 25  1  0  0  0  0
 20 25  2  0  0  0  0
 23 25  1  0  0  0  0
 25 35  1  0  0  0  0
  6  8  1  0  0  0  0
  6 29  1  0  0  0  0
  6 41  1  0  0  0  0
  7 17  1  0  0  0  0
  7  9  1  0  0  0  0
  7 31  1  0  0  0  0
  7 42  1  0  0  0  0
 17 43  1  0  0  0  0
  8 18  1  0  0  0  0
  8 26  1  0  0  0  0
  8 44  1  0  0  0  0
 18 45  1  0  0  0  0
  9 21  1  0  0  0  0
  9 28  1  0  0  0  0
  9 46  1  0  0  0  0
 21 48  1  0  0  0  0
 22 26  1  0  0  0  0
 26 30  1  0  0  0  0
 26 50  1  0  0  0  0
 22 51  1  0  0  0  0
 27 28  1  0  0  0  0
 28 32  1  0  0  0  0
 28 52  1  0  0  0  0
 27 53  1  0  0  0  0
 29 30  1  0  0  0  0
 30 34  1  0  0  0  0
 30 54  1  0  0  0  0
 31 32  1  0  0  0  0
 32 36  1  0  0  0  0
 32 55  1  0  0  0  0
 33 34  1  0  0  0  0
 34 39  1  0  0  0  0
 34 40  1  0  0  0  0
 35 36  1  0  0  0  0
 36 47  1  0  0  0  0
 36 49  1  0  0  0  0
M  CHG  2  16  -1  19  -1
M  END
$$$$
